<?xml version="1.0" encoding="UTF-8"?>

<!-- generated on 2025-05-29 22:07:51 by Eclipse SUMO netedit Version 1.23.1
<neteditConfiguration xmlns:xsi="http://www.w3.org/2001/XMLSchema-instance" xsi:noNamespaceSchemaLocation="http://sumo.dlr.de/xsd/neteditConfiguration.xsd">

    <input>
        <sumocfg-file value="C:\Users\dell\Desktop\Master 3rd Semester\Data Science\Rafay\ex1.sumocfg"/>
        <route-files value="C:\Users\dell\Desktop\Master 3rd Semester\Data Science\Submission\exercise1.rou.xml"/>
        <sumo-net-file value="C:\Users\dell\Desktop\Master 3rd Semester\Data Science\Rafay\exercise1.net.xml"/>
        <node-files value="C:\Users\dell\Desktop\Master 3rd Semester\Data Science\Rafay\Ex1.nod.xml"/>
        <edge-files value="C:\Users\dell\Desktop\Master 3rd Semester\Data Science\Rafay\Ex1.edg.xml"/>
        <connection-files value="C:\Users\dell\Desktop\Master 3rd Semester\Data Science\Rafay\Ex1.con.xml"/>
        <tllogic-files value="C:\Users\dell\Desktop\Master 3rd Semester\Data Science\Rafay\Ex1.tll.xml"/>
    </input>

    <output>
        <output-file value="C:\Users\dell\Desktop\Master 3rd Semester\Data Science\Rafay\exercise1.net.xml"/>
    </output>

    <processing>
        <geometry.min-radius.fix.railways value="false"/>
        <geometry.avoid-overlap value="false"/>
        <geometry.max-grade.fix value="false"/>
        <offset.disable-normalization value="true"/>
        <lefthand value="0"/>
    </processing>

    <junctions>
        <no-turnarounds value="true"/>
        <junctions.corner-detail value="5"/>
        <junctions.limit-turn-speed value="5.50"/>
        <rectangular-lane-cut value="0"/>
    </junctions>

    <pedestrian>
        <walkingareas value="0"/>
    </pedestrian>

</neteditConfiguration>
-->

<net version="1.20" junctionCornerDetail="5" limitTurnSpeed="5.50" avoidOverlap="0" xmlns:xsi="http://www.w3.org/2001/XMLSchema-instance" xsi:noNamespaceSchemaLocation="http://sumo.dlr.de/xsd/net_file.xsd">

    <location netOffset="0.00,0.00" convBoundary="-250.20,-499.87,501.30,250.00" origBoundary="-10000000000.00,-10000000000.00,10000000000.00,10000000000.00" projParameter="!"/>

    <edge id=":J0_0" function="internal">
        <lane id=":J0_0_0" index="0" speed="13.89" length="27.35" shape="13.70,7.87 -13.68,8.00"/>
        <lane id=":J0_0_1" index="1" speed="13.89" length="27.35" shape="13.67,4.67 -13.68,4.80"/>
        <lane id=":J0_0_2" index="2" speed="13.89" length="27.35" shape="13.64,1.47 -13.68,1.60"/>
    </edge>
    <edge id=":J0_3" function="internal">
        <lane id=":J0_3_0" index="0" speed="13.89" length="27.43" shape="7.90,-13.73 7.88,13.75"/>
        <lane id=":J0_3_1" index="1" speed="13.89" length="27.43" shape="4.70,-13.71 4.68,13.72"/>
        <lane id=":J0_3_2" index="2" speed="13.89" length="27.43" shape="1.50,-13.69 1.48,13.69"/>
    </edge>
    <edge id=":J0_6" function="internal">
        <lane id=":J0_6_0" index="0" speed="13.89" length="27.25" shape="-13.68,-8.00 13.54,-8.13"/>
        <lane id=":J0_6_1" index="1" speed="13.89" length="27.25" shape="-13.68,-4.80 13.57,-4.93"/>
        <lane id=":J0_6_2" index="2" speed="13.89" length="27.25" shape="-13.68,-1.60 13.61,-1.73"/>
    </edge>
    <edge id=":J0_9" function="internal">
        <lane id=":J0_9_0" index="0" speed="13.89" length="27.28" shape="-8.12,13.61 -8.10,-13.61"/>
        <lane id=":J0_9_1" index="1" speed="13.89" length="27.28" shape="-4.92,13.64 -4.90,-13.64"/>
        <lane id=":J0_9_2" index="2" speed="13.89" length="27.28" shape="-1.72,13.67 -1.70,-13.66"/>
    </edge>
    <edge id=":J1_0" function="internal">
        <lane id=":J1_0_0" index="0" speed="13.89" length="27.36" shape="243.37,11.25 243.22,-16.11"/>
        <lane id=":J1_0_1" index="1" speed="13.89" length="27.36" shape="246.57,11.23 246.42,-16.13"/>
        <lane id=":J1_0_2" index="2" speed="13.89" length="27.36" shape="249.77,11.22 249.62,-16.15"/>
    </edge>
    <edge id=":J1_3" function="internal">
        <lane id=":J1_3_0" index="0" speed="13.89" length="27.41" shape="265.17,5.31 237.73,5.69"/>
        <lane id=":J1_3_1" index="1" speed="13.89" length="27.41" shape="265.11,2.11 237.70,2.49"/>
        <lane id=":J1_3_2" index="2" speed="13.89" length="27.41" shape="265.06,-1.09 237.67,-0.71"/>
    </edge>
    <edge id=":J1_6" function="internal">
        <lane id=":J1_6_0" index="0" speed="13.89" length="27.38" shape="259.22,-16.21 259.37,11.18"/>
        <lane id=":J1_6_1" index="1" speed="13.89" length="27.38" shape="256.02,-16.19 256.17,11.20"/>
        <lane id=":J1_6_2" index="2" speed="13.89" length="27.38" shape="252.82,-16.17 252.97,11.21"/>
    </edge>
    <edge id=":J1_9" function="internal">
        <lane id=":J1_9_0" index="0" speed="13.89" length="27.33" shape="237.58,-10.31 264.88,-10.69"/>
        <lane id=":J1_9_1" index="1" speed="13.89" length="27.33" shape="237.61,-7.11 264.94,-7.49"/>
        <lane id=":J1_9_2" index="2" speed="13.89" length="27.33" shape="237.64,-3.91 265.00,-4.29"/>
    </edge>
    <edge id=":J5_0" function="internal">
        <lane id=":J5_0_0" index="0" speed="13.89" length="27.51" shape="-9.76,-236.42 -9.99,-263.93"/>
        <lane id=":J5_0_1" index="1" speed="13.89" length="27.51" shape="-6.56,-236.44 -6.79,-263.96"/>
        <lane id=":J5_0_2" index="2" speed="13.89" length="27.51" shape="-3.36,-236.47 -3.59,-263.98"/>
    </edge>
    <edge id=":J5_3" function="internal">
        <lane id=":J5_3_0" index="0" speed="13.89" length="27.54" shape="11.82,-242.13 -15.73,-242.35"/>
        <lane id=":J5_3_1" index="1" speed="13.89" length="27.54" shape="11.84,-245.33 -15.70,-245.55"/>
        <lane id=":J5_3_2" index="2" speed="13.89" length="27.54" shape="11.86,-248.53 -15.67,-248.75"/>
    </edge>
    <edge id=":J5_6" function="internal">
        <lane id=":J5_6_0" index="0" speed="13.89" length="27.53" shape="6.01,-264.07 6.24,-236.54"/>
        <lane id=":J5_6_1" index="1" speed="13.89" length="27.53" shape="2.81,-264.04 3.04,-236.52"/>
        <lane id=":J5_6_2" index="2" speed="13.89" length="27.53" shape="-0.39,-264.01 -0.16,-236.49"/>
    </edge>
    <edge id=":J5_9" function="internal">
        <lane id=":J5_9_0" index="0" speed="13.89" length="27.50" shape="-15.57,-258.35 11.92,-258.13"/>
        <lane id=":J5_9_1" index="1" speed="13.89" length="27.50" shape="-15.60,-255.15 11.90,-254.93"/>
        <lane id=":J5_9_2" index="2" speed="13.89" length="27.50" shape="-15.63,-251.95 11.88,-251.73"/>
    </edge>
    <edge id=":J6_0" function="internal">
        <lane id=":J6_0_0" index="0" speed="13.89" length="27.33" shape="241.86,-235.02 241.81,-262.38"/>
        <lane id=":J6_0_1" index="1" speed="13.89" length="27.33" shape="245.06,-235.04 245.01,-262.37"/>
        <lane id=":J6_0_2" index="2" speed="13.89" length="27.33" shape="248.26,-235.06 248.21,-262.36"/>
    </edge>
    <edge id=":J6_3" function="internal">
        <lane id=":J6_3_0" index="0" speed="13.89" length="27.35" shape="263.47,-240.75 236.09,-240.77"/>
        <lane id=":J6_3_1" index="1" speed="13.89" length="27.35" shape="263.46,-243.95 236.11,-243.97"/>
        <lane id=":J6_3_2" index="2" speed="13.89" length="27.35" shape="263.45,-247.15 236.13,-247.17"/>
    </edge>
    <edge id=":J6_6" function="internal">
        <lane id=":J6_6_0" index="0" speed="13.89" length="27.24" shape="257.81,-262.34 257.86,-235.12"/>
        <lane id=":J6_6_1" index="1" speed="13.89" length="27.24" shape="254.61,-262.35 254.66,-235.10"/>
        <lane id=":J6_6_2" index="2" speed="13.89" length="27.24" shape="251.41,-262.35 251.46,-235.08"/>
    </edge>
    <edge id=":J6_9" function="internal">
        <lane id=":J6_9_0" index="0" speed="13.89" length="27.25" shape="236.19,-256.77 263.41,-256.75"/>
        <lane id=":J6_9_1" index="1" speed="13.89" length="27.25" shape="236.17,-253.57 263.42,-253.55"/>
        <lane id=":J6_9_2" index="2" speed="13.89" length="27.25" shape="236.15,-250.37 263.43,-250.35"/>
    </edge>

    <edge id="-E13" from="J5" to="J10" priority="-1">
        <lane id="-E13_0" index="0" speed="13.89" length="232.57" shape="-15.73,-242.35 -248.29,-244.78"/>
        <lane id="-E13_1" index="1" speed="13.89" length="232.57" shape="-15.70,-245.55 -248.26,-247.98"/>
        <lane id="-E13_2" index="2" speed="13.89" length="232.57" shape="-15.67,-248.75 -248.23,-251.18"/>
    </edge>
    <edge id="-E14" from="J12" to="J5" priority="-1">
        <lane id="-E14_0" index="0" speed="13.89" length="235.88" shape="3.85,-499.94 6.01,-264.07"/>
        <lane id="-E14_1" index="1" speed="13.89" length="235.88" shape="0.65,-499.91 2.81,-264.04"/>
        <lane id="-E14_2" index="2" speed="13.89" length="235.88" shape="-2.55,-499.88 -0.39,-264.01"/>
    </edge>
    <edge id="-E16" from="J6" to="J5" priority="-1">
        <lane id="-E16_0" index="0" speed="13.89" length="224.27" shape="236.09,-240.77 11.82,-242.13"/>
        <lane id="-E16_1" index="1" speed="13.89" length="224.27" shape="236.11,-243.97 11.84,-245.33"/>
        <lane id="-E16_2" index="2" speed="13.89" length="224.27" shape="236.13,-247.17 11.86,-248.53"/>
    </edge>
    <edge id="-E17" from="J13" to="J6" priority="-1">
        <lane id="-E17_0" index="0" speed="13.89" length="237.51" shape="258.52,-499.85 257.81,-262.34"/>
        <lane id="-E17_1" index="1" speed="13.89" length="237.51" shape="255.32,-499.86 254.61,-262.35"/>
        <lane id="-E17_2" index="2" speed="13.89" length="237.51" shape="252.12,-499.87 251.41,-262.35"/>
    </edge>
    <edge id="-E18" from="J0" to="J5" priority="-1">
        <lane id="-E18_0" index="0" speed="13.89" length="222.81" shape="-8.10,-13.61 -9.76,-236.42"/>
        <lane id="-E18_1" index="1" speed="13.89" length="222.81" shape="-4.90,-13.64 -6.56,-236.44"/>
        <lane id="-E18_2" index="2" speed="13.89" length="222.81" shape="-1.70,-13.66 -3.36,-236.47"/>
    </edge>
    <edge id="-E19" from="J0" to="J14" priority="-1">
        <lane id="-E19_0" index="0" speed="13.89" length="236.52" shape="-13.68,8.00 -250.20,7.94"/>
        <lane id="-E19_1" index="1" speed="13.89" length="236.52" shape="-13.68,4.80 -250.20,4.74"/>
        <lane id="-E19_2" index="2" speed="13.89" length="236.52" shape="-13.68,1.60 -250.20,1.54"/>
    </edge>
    <edge id="-E20" from="J1" to="J0" priority="-1">
        <lane id="-E20_0" index="0" speed="13.89" length="224.05" shape="237.73,5.69 13.70,7.87"/>
        <lane id="-E20_1" index="1" speed="13.89" length="224.05" shape="237.70,2.49 13.67,4.67"/>
        <lane id="-E20_2" index="2" speed="13.89" length="224.05" shape="237.67,-0.71 13.64,1.47"/>
    </edge>
    <edge id="-E21" from="J9" to="J1" priority="-1">
        <lane id="-E21_0" index="0" speed="13.89" length="236.31" shape="501.45,0.94 265.17,5.31"/>
        <lane id="-E21_1" index="1" speed="13.89" length="236.31" shape="501.39,-2.26 265.11,2.11"/>
        <lane id="-E21_2" index="2" speed="13.89" length="236.31" shape="501.33,-5.46 265.06,-1.09"/>
    </edge>
    <edge id="-E23" from="J6" to="J11" priority="-1">
        <lane id="-E23_0" index="0" speed="13.89" length="235.68" shape="263.41,-256.75 499.09,-257.75"/>
        <lane id="-E23_1" index="1" speed="13.89" length="235.68" shape="263.42,-253.55 499.10,-254.55"/>
        <lane id="-E23_2" index="2" speed="13.89" length="235.68" shape="263.43,-250.35 499.11,-251.35"/>
    </edge>
    <edge id="-E24" from="J3" to="J0" priority="-1">
        <lane id="-E24_0" index="0" speed="13.89" length="235.68" shape="-10.15,249.28 -8.12,13.61"/>
        <lane id="-E24_1" index="1" speed="13.89" length="235.68" shape="-6.95,249.31 -4.92,13.64"/>
        <lane id="-E24_2" index="2" speed="13.89" length="235.68" shape="-3.75,249.34 -1.72,13.67"/>
    </edge>
    <edge id="-E25" from="J4" to="J1" priority="-1">
        <lane id="-E25_0" index="0" speed="13.89" length="238.79" shape="244.33,250.03 243.37,11.25"/>
        <lane id="-E25_1" index="1" speed="13.89" length="238.79" shape="247.53,250.02 246.57,11.23"/>
        <lane id="-E25_2" index="2" speed="13.89" length="238.79" shape="250.73,250.01 249.77,11.22"/>
    </edge>
    <edge id="-E26" from="J6" to="J1" priority="-1">
        <lane id="-E26_0" index="0" speed="13.89" length="218.92" shape="257.86,-235.12 259.22,-16.21"/>
        <lane id="-E26_1" index="1" speed="13.89" length="218.92" shape="254.66,-235.10 256.02,-16.19"/>
        <lane id="-E26_2" index="2" speed="13.89" length="218.92" shape="251.46,-235.08 252.82,-16.17"/>
    </edge>
    <edge id="E13" from="J10" to="J5" priority="-1">
        <lane id="E13_0" index="0" speed="13.89" length="232.57" shape="-248.13,-260.78 -15.57,-258.35"/>
        <lane id="E13_1" index="1" speed="13.89" length="232.57" shape="-248.16,-257.58 -15.60,-255.15"/>
        <lane id="E13_2" index="2" speed="13.89" length="232.57" shape="-248.19,-254.38 -15.63,-251.95"/>
    </edge>
    <edge id="E14" from="J5" to="J12" priority="-1">
        <lane id="E14_0" index="0" speed="13.89" length="235.88" shape="-9.99,-263.93 -12.15,-499.80"/>
        <lane id="E14_1" index="1" speed="13.89" length="235.88" shape="-6.79,-263.96 -8.95,-499.83"/>
        <lane id="E14_2" index="2" speed="13.89" length="235.88" shape="-3.59,-263.98 -5.75,-499.86"/>
    </edge>
    <edge id="E16" from="J5" to="J6" priority="-1">
        <lane id="E16_0" index="0" speed="13.89" length="224.27" shape="11.92,-258.13 236.19,-256.77"/>
        <lane id="E16_1" index="1" speed="13.89" length="224.27" shape="11.90,-254.93 236.17,-253.57"/>
        <lane id="E16_2" index="2" speed="13.89" length="224.27" shape="11.88,-251.73 236.15,-250.37"/>
    </edge>
    <edge id="E17" from="J6" to="J13" priority="-1">
        <lane id="E17_0" index="0" speed="13.89" length="237.51" shape="241.81,-262.38 242.52,-499.89"/>
        <lane id="E17_1" index="1" speed="13.89" length="237.51" shape="245.01,-262.37 245.72,-499.88"/>
        <lane id="E17_2" index="2" speed="13.89" length="237.51" shape="248.21,-262.36 248.92,-499.87"/>
    </edge>
    <edge id="E18" from="J5" to="J0" priority="-1">
        <lane id="E18_0" index="0" speed="13.89" length="222.81" shape="6.24,-236.54 7.90,-13.73"/>
        <lane id="E18_1" index="1" speed="13.89" length="222.81" shape="3.04,-236.52 4.70,-13.71"/>
        <lane id="E18_2" index="2" speed="13.89" length="222.81" shape="-0.16,-236.49 1.50,-13.69"/>
    </edge>
    <edge id="E19" from="J14" to="J0" priority="-1">
        <lane id="E19_0" index="0" speed="13.89" length="236.52" shape="-250.20,-8.06 -13.68,-8.00"/>
        <lane id="E19_1" index="1" speed="13.89" length="236.52" shape="-250.20,-4.86 -13.68,-4.80"/>
        <lane id="E19_2" index="2" speed="13.89" length="236.52" shape="-250.20,-1.66 -13.68,-1.60"/>
    </edge>
    <edge id="E20" from="J0" to="J1" priority="-1">
        <lane id="E20_0" index="0" speed="13.89" length="224.05" shape="13.54,-8.13 237.58,-10.31"/>
        <lane id="E20_1" index="1" speed="13.89" length="224.05" shape="13.57,-4.93 237.61,-7.11"/>
        <lane id="E20_2" index="2" speed="13.89" length="224.05" shape="13.61,-1.73 237.64,-3.91"/>
    </edge>
    <edge id="E21" from="J1" to="J9" priority="-1">
        <lane id="E21_0" index="0" speed="13.89" length="236.31" shape="264.88,-10.69 501.15,-15.06"/>
        <lane id="E21_1" index="1" speed="13.89" length="236.31" shape="264.94,-7.49 501.21,-11.86"/>
        <lane id="E21_2" index="2" speed="13.89" length="236.31" shape="265.00,-4.29 501.27,-8.66"/>
    </edge>
    <edge id="E23" from="J11" to="J6" priority="-1">
        <lane id="E23_0" index="0" speed="13.89" length="235.68" shape="499.15,-241.75 263.47,-240.75"/>
        <lane id="E23_1" index="1" speed="13.89" length="235.68" shape="499.14,-244.95 263.46,-243.95"/>
        <lane id="E23_2" index="2" speed="13.89" length="235.68" shape="499.13,-248.15 263.45,-247.15"/>
    </edge>
    <edge id="E24" from="J0" to="J3" priority="-1">
        <lane id="E24_0" index="0" speed="13.89" length="235.68" shape="7.88,13.75 5.85,249.42"/>
        <lane id="E24_1" index="1" speed="13.89" length="235.68" shape="4.68,13.72 2.65,249.39"/>
        <lane id="E24_2" index="2" speed="13.89" length="235.68" shape="1.48,13.69 -0.55,249.36"/>
    </edge>
    <edge id="E25" from="J1" to="J4" priority="-1">
        <lane id="E25_0" index="0" speed="13.89" length="238.79" shape="259.37,11.18 260.33,249.97"/>
        <lane id="E25_1" index="1" speed="13.89" length="238.79" shape="256.17,11.20 257.13,249.98"/>
        <lane id="E25_2" index="2" speed="13.89" length="238.79" shape="252.97,11.21 253.93,249.99"/>
    </edge>
    <edge id="E26" from="J1" to="J6" priority="-1">
        <lane id="E26_0" index="0" speed="13.89" length="218.92" shape="243.22,-16.11 241.86,-235.02"/>
        <lane id="E26_1" index="1" speed="13.89" length="218.92" shape="246.42,-16.13 245.06,-235.04"/>
        <lane id="E26_2" index="2" speed="13.89" length="218.92" shape="249.62,-16.15 248.26,-235.06"/>
    </edge>

    <tlLogic id="J0" type="static" programID="0" offset="0">
        <phase duration="54" state="GGGrrrGGGrrrrr"/>
        <phase duration="6"  state="yyyrrryyyrrrrr"/>
        <phase duration="54" state="rrrGGGrrrGGGrr"/>
        <phase duration="6"  state="rrryyyrrryyyrr"/>
    </tlLogic>
    <tlLogic id="J1" type="static" programID="0" offset="0">
        <phase duration="54" state="GGGrrrGGGrrr"/>
        <phase duration="6"  state="yyyrrryyyrrr"/>
        <phase duration="54" state="rrrGGGrrrGGG"/>
        <phase duration="6"  state="rrryyyrrryyy"/>
    </tlLogic>
    <tlLogic id="J5" type="static" programID="0" offset="0">
        <phase duration="54" state="GGGrrrGGGrrr"/>
        <phase duration="6"  state="yyyrrryyyrrr"/>
        <phase duration="54" state="rrrGGGrrrGGG"/>
        <phase duration="6"  state="rrryyyrrryyy"/>
    </tlLogic>
    <tlLogic id="J6" type="static" programID="0" offset="0">
        <phase duration="54" state="GGGrrrGGGrrr"/>
        <phase duration="6"  state="yyyrrryyyrrr"/>
        <phase duration="54" state="rrrGGGrrrGGG"/>
        <phase duration="6"  state="rrryyyrrryyy"/>
    </tlLogic>

    <junction id="J0" type="traffic_light" x="0.00" y="0.00" incLanes="-E20_0 -E20_1 -E20_2 E18_0 E18_1 E18_2 E19_0 E19_1 E19_2 -E24_0 -E24_1 -E24_2" intLanes=":J0_0_0 :J0_0_1 :J0_0_2 :J0_3_0 :J0_3_1 :J0_3_2 :J0_6_0 :J0_6_1 :J0_6_2 :J0_9_0 :J0_9_1 :J0_9_2" shape="13.71,9.47 13.53,-9.73 11.30,-10.16 10.52,-10.72 9.96,-11.50 9.62,-12.51 9.50,-13.74 -9.70,-13.60 -10.13,-11.38 -10.68,-10.60 -11.46,-10.05 -12.46,-9.71 -13.68,-9.60 -13.68,9.60 -11.46,10.04 -10.69,10.60 -10.14,11.38 -9.82,12.38 -9.72,13.60 9.48,13.76 9.97,11.39 10.56,10.56 11.38,9.96 12.43,9.60">
        <request index="0"  response="000000000000" foes="111000111000" cont="0"/>
        <request index="1"  response="000000000000" foes="111000111000" cont="0"/>
        <request index="2"  response="000000000000" foes="111000111000" cont="0"/>
        <request index="3"  response="000111000111" foes="000111000111" cont="0"/>
        <request index="4"  response="000111000111" foes="000111000111" cont="0"/>
        <request index="5"  response="000111000111" foes="000111000111" cont="0"/>
        <request index="6"  response="000000000000" foes="111000111000" cont="0"/>
        <request index="7"  response="000000000000" foes="111000111000" cont="0"/>
        <request index="8"  response="000000000000" foes="111000111000" cont="0"/>
        <request index="9"  response="000111000111" foes="000111000111" cont="0"/>
        <request index="10" response="000111000111" foes="000111000111" cont="0"/>
        <request index="11" response="000111000111" foes="000111000111" cont="0"/>
    </junction>
    <junction id="J1" type="traffic_light" x="251.31" y="-2.44" incLanes="-E25_0 -E25_1 -E25_2 -E21_0 -E21_1 -E21_2 -E26_0 -E26_1 -E26_2 E20_0 E20_1 E20_2" intLanes=":J1_0_0 :J1_0_1 :J1_0_2 :J1_3_0 :J1_3_1 :J1_3_2 :J1_6_0 :J1_6_1 :J1_6_2 :J1_9_0 :J1_9_1 :J1_9_2" shape="241.77,11.25 260.97,11.18 261.43,8.84 262.02,8.01 262.84,7.41 263.90,7.05 265.20,6.90 264.85,-12.29 262.62,-12.70 261.84,-13.24 261.28,-14.00 260.94,-15.00 260.82,-16.22 241.62,-16.10 241.18,-13.79 240.62,-12.97 239.83,-12.39 238.81,-12.03 237.56,-11.91 237.75,7.29 239.97,7.71 240.75,8.26 241.31,9.04 241.65,10.03">
        <request index="0"  response="000000000000" foes="111000111000" cont="0"/>
        <request index="1"  response="000000000000" foes="111000111000" cont="0"/>
        <request index="2"  response="000000000000" foes="111000111000" cont="0"/>
        <request index="3"  response="000111000111" foes="000111000111" cont="0"/>
        <request index="4"  response="000111000111" foes="000111000111" cont="0"/>
        <request index="5"  response="000111000111" foes="000111000111" cont="0"/>
        <request index="6"  response="000000000000" foes="111000111000" cont="0"/>
        <request index="7"  response="000000000000" foes="111000111000" cont="0"/>
        <request index="8"  response="000000000000" foes="111000111000" cont="0"/>
        <request index="9"  response="000111000111" foes="000111000111" cont="0"/>
        <request index="10" response="000111000111" foes="000111000111" cont="0"/>
        <request index="11" response="000111000111" foes="000111000111" cont="0"/>
    </junction>
    <junction id="J10" type="dead_end" x="-248.21" y="-252.78" incLanes="-E13_0 -E13_1 -E13_2" intLanes="" shape="-248.21,-252.78 -248.31,-243.18 -248.21,-252.78"/>
    <junction id="J11" type="dead_end" x="499.12" y="-249.75" incLanes="-E23_0 -E23_1 -E23_2" intLanes="" shape="499.12,-249.75 499.08,-259.35 499.12,-249.75"/>
    <junction id="J12" type="dead_end" x="-4.15" y="-499.87" incLanes="E14_0 E14_1 E14_2" intLanes="" shape="-4.15,-499.87 -13.75,-499.78 -4.15,-499.87"/>
    <junction id="J13" type="dead_end" x="250.52" y="-499.87" incLanes="E17_0 E17_1 E17_2" intLanes="" shape="250.52,-499.87 240.92,-499.90 250.52,-499.87"/>
    <junction id="J14" type="dead_end" x="-250.20" y="-0.06" incLanes="-E19_0 -E19_1 -E19_2" intLanes="" shape="-250.20,-0.06 -250.20,9.54 -250.20,-0.06"/>
    <junction id="J3" type="dead_end" x="-2.15" y="249.35" incLanes="E24_0 E24_1 E24_2" intLanes="" shape="-2.15,249.35 7.45,249.43 -2.15,249.35"/>
    <junction id="J4" type="dead_end" x="252.33" y="250.00" incLanes="E25_0 E25_1 E25_2" intLanes="" shape="252.33,250.00 261.93,249.96 252.33,250.00"/>
    <junction id="J5" type="traffic_light" x="-1.86" y="-250.21" incLanes="-E18_0 -E18_1 -E18_2 -E16_0 -E16_1 -E16_2 -E14_0 -E14_1 -E14_2 E13_0 E13_1 E13_2" intLanes=":J5_0_0 :J5_0_1 :J5_0_2 :J5_3_0 :J5_3_1 :J5_3_2 :J5_6_0 :J5_6_1 :J5_6_2 :J5_9_0 :J5_9_1 :J5_9_2" shape="-11.36,-236.41 7.84,-236.55 8.27,-238.77 8.82,-239.55 9.59,-240.10 10.59,-240.42 11.81,-240.53 11.93,-259.73 9.55,-260.22 8.71,-260.83 8.11,-261.68 7.74,-262.76 7.61,-264.09 -11.59,-263.91 -12.01,-261.69 -12.56,-260.92 -13.33,-260.37 -14.33,-260.05 -15.55,-259.95 -15.75,-240.75 -13.32,-240.25 -12.47,-239.65 -11.86,-238.80 -11.49,-237.72">
        <request index="0"  response="000000000000" foes="111000111000" cont="0"/>
        <request index="1"  response="000000000000" foes="111000111000" cont="0"/>
        <request index="2"  response="000000000000" foes="111000111000" cont="0"/>
        <request index="3"  response="000111000111" foes="000111000111" cont="0"/>
        <request index="4"  response="000111000111" foes="000111000111" cont="0"/>
        <request index="5"  response="000111000111" foes="000111000111" cont="0"/>
        <request index="6"  response="000000000000" foes="111000111000" cont="0"/>
        <request index="7"  response="000000000000" foes="111000111000" cont="0"/>
        <request index="8"  response="000000000000" foes="111000111000" cont="0"/>
        <request index="9"  response="000111000111" foes="000111000111" cont="0"/>
        <request index="10" response="000111000111" foes="000111000111" cont="0"/>
        <request index="11" response="000111000111" foes="000111000111" cont="0"/>
    </junction>
    <junction id="J6" type="traffic_light" x="249.77" y="-248.69" incLanes="E26_0 E26_1 E26_2 E23_0 E23_1 E23_2 -E17_0 -E17_1 -E17_2 E16_0 E16_1 E16_2" intLanes=":J6_0_0 :J6_0_1 :J6_0_2 :J6_3_0 :J6_3_1 :J6_3_2 :J6_6_0 :J6_6_1 :J6_6_2 :J6_9_0 :J6_9_1 :J6_9_2" shape="240.26,-235.01 259.45,-235.13 259.89,-237.36 260.45,-238.14 261.23,-238.69 262.24,-239.03 263.48,-239.15 263.40,-258.35 261.18,-258.78 260.40,-259.34 259.85,-260.11 259.52,-261.11 259.41,-262.33 240.21,-262.39 239.76,-260.15 239.20,-259.36 238.42,-258.81 237.42,-258.48 236.20,-258.37 236.08,-239.17 238.39,-238.70 239.20,-238.12 239.78,-237.31 240.13,-236.28">
        <request index="0"  response="000000000000" foes="111000111000" cont="0"/>
        <request index="1"  response="000000000000" foes="111000111000" cont="0"/>
        <request index="2"  response="000000000000" foes="111000111000" cont="0"/>
        <request index="3"  response="000111000111" foes="000111000111" cont="0"/>
        <request index="4"  response="000111000111" foes="000111000111" cont="0"/>
        <request index="5"  response="000111000111" foes="000111000111" cont="0"/>
        <request index="6"  response="000000000000" foes="111000111000" cont="0"/>
        <request index="7"  response="000000000000" foes="111000111000" cont="0"/>
        <request index="8"  response="000000000000" foes="111000111000" cont="0"/>
        <request index="9"  response="000111000111" foes="000111000111" cont="0"/>
        <request index="10" response="000111000111" foes="000111000111" cont="0"/>
        <request index="11" response="000111000111" foes="000111000111" cont="0"/>
    </junction>
    <junction id="J9" type="dead_end" x="501.30" y="-7.06" incLanes="E21_0 E21_1 E21_2" intLanes="" shape="501.30,-7.06 501.12,-16.66 501.30,-7.06"/>

    <connection from="-E14" to="E18" fromLane="0" toLane="0" via=":J5_6_0" tl="J5" linkIndex="6" dir="s" state="O"/>
    <connection from="-E14" to="E18" fromLane="1" toLane="1" via=":J5_6_1" tl="J5" linkIndex="7" dir="s" state="O"/>
    <connection from="-E14" to="E18" fromLane="2" toLane="2" via=":J5_6_2" tl="J5" linkIndex="8" dir="s" state="O"/>
    <connection from="-E16" to="-E13" fromLane="0" toLane="0" via=":J5_3_0" tl="J5" linkIndex="3" dir="s" state="o"/>
    <connection from="-E16" to="-E13" fromLane="1" toLane="1" via=":J5_3_1" tl="J5" linkIndex="4" dir="s" state="o"/>
    <connection from="-E16" to="-E13" fromLane="2" toLane="2" via=":J5_3_2" tl="J5" linkIndex="5" dir="s" state="o"/>
    <connection from="-E17" to="-E26" fromLane="0" toLane="0" via=":J6_6_0" tl="J6" linkIndex="6" dir="s" state="O"/>
    <connection from="-E17" to="-E26" fromLane="1" toLane="1" via=":J6_6_1" tl="J6" linkIndex="7" dir="s" state="O"/>
    <connection from="-E17" to="-E26" fromLane="2" toLane="2" via=":J6_6_2" tl="J6" linkIndex="8" dir="s" state="O"/>
    <connection from="-E18" to="E14" fromLane="0" toLane="0" via=":J5_0_0" tl="J5" linkIndex="0" dir="s" state="O"/>
    <connection from="-E18" to="E14" fromLane="1" toLane="1" via=":J5_0_1" tl="J5" linkIndex="1" dir="s" state="O"/>
    <connection from="-E18" to="E14" fromLane="2" toLane="2" via=":J5_0_2" tl="J5" linkIndex="2" dir="s" state="O"/>
    <connection from="-E20" to="-E19" fromLane="0" toLane="0" via=":J0_0_0" tl="J0" linkIndex="0" dir="s" state="O"/>
    <connection from="-E20" to="-E19" fromLane="1" toLane="1" via=":J0_0_1" tl="J0" linkIndex="1" dir="s" state="O"/>
    <connection from="-E20" to="-E19" fromLane="2" toLane="2" via=":J0_0_2" tl="J0" linkIndex="2" dir="s" state="O"/>
    <connection from="-E21" to="-E20" fromLane="0" toLane="0" via=":J1_3_0" tl="J1" linkIndex="3" dir="s" state="o"/>
    <connection from="-E21" to="-E20" fromLane="1" toLane="1" via=":J1_3_1" tl="J1" linkIndex="4" dir="s" state="o"/>
    <connection from="-E21" to="-E20" fromLane="2" toLane="2" via=":J1_3_2" tl="J1" linkIndex="5" dir="s" state="o"/>
    <connection from="-E24" to="-E18" fromLane="0" toLane="0" via=":J0_9_0" tl="J0" linkIndex="9" dir="s" state="o"/>
    <connection from="-E24" to="-E18" fromLane="1" toLane="1" via=":J0_9_1" tl="J0" linkIndex="10" dir="s" state="o"/>
    <connection from="-E24" to="-E18" fromLane="2" toLane="2" via=":J0_9_2" tl="J0" linkIndex="11" dir="s" state="o"/>
    <connection from="-E25" to="E26" fromLane="0" toLane="0" via=":J1_0_0" tl="J1" linkIndex="0" dir="s" state="O"/>
    <connection from="-E25" to="E26" fromLane="1" toLane="1" via=":J1_0_1" tl="J1" linkIndex="1" dir="s" state="O"/>
    <connection from="-E25" to="E26" fromLane="2" toLane="2" via=":J1_0_2" tl="J1" linkIndex="2" dir="s" state="O"/>
    <connection from="-E26" to="E25" fromLane="0" toLane="0" via=":J1_6_0" tl="J1" linkIndex="6" dir="s" state="O"/>
    <connection from="-E26" to="E25" fromLane="1" toLane="1" via=":J1_6_1" tl="J1" linkIndex="7" dir="s" state="O"/>
    <connection from="-E26" to="E25" fromLane="2" toLane="2" via=":J1_6_2" tl="J1" linkIndex="8" dir="s" state="O"/>
    <connection from="E13" to="E16" fromLane="0" toLane="0" via=":J5_9_0" tl="J5" linkIndex="9" dir="s" state="o"/>
    <connection from="E13" to="E16" fromLane="1" toLane="1" via=":J5_9_1" tl="J5" linkIndex="10" dir="s" state="o"/>
    <connection from="E13" to="E16" fromLane="2" toLane="2" via=":J5_9_2" tl="J5" linkIndex="11" dir="s" state="o"/>
    <connection from="E16" to="-E23" fromLane="0" toLane="0" via=":J6_9_0" tl="J6" linkIndex="9" dir="s" state="o"/>
    <connection from="E16" to="-E23" fromLane="1" toLane="1" via=":J6_9_1" tl="J6" linkIndex="10" dir="s" state="o"/>
    <connection from="E16" to="-E23" fromLane="2" toLane="2" via=":J6_9_2" tl="J6" linkIndex="11" dir="s" state="o"/>
    <connection from="E18" to="E24" fromLane="0" toLane="0" via=":J0_3_0" tl="J0" linkIndex="3" dir="s" state="o"/>
    <connection from="E18" to="E24" fromLane="1" toLane="1" via=":J0_3_1" tl="J0" linkIndex="4" dir="s" state="o"/>