<?xml version="1.0" encoding="UTF-8"?>

<!-- generated on 2025-05-29 21:33:29 by Eclipse SUMO netedit Version 1.23.1
-->

<routes xmlns:xsi="http://www.w3.org/2001/XMLSchema-instance" xsi:noNamespaceSchemaLocation="http://sumo.dlr.de/xsd/routes_file.xsd">
    <!-- Vehicles, persons and containers (sorted by depart) -->
    <flow id="f_0" begin="0.00" departLane="best" departSpeed="max" from="E19" to="E21" via="E20" end="38.00" vehsPerHour="1800"/>
    <flow id="f_1" begin="0.00" departLane="best" departSpeed="max" from="-E25" to="E17" via="E26" end="38.00" vehsPerHour="1800"/>
    <flow id="f_2" begin="0.00" departLane="best" departSpeed="max" from="E23" to="-E13" via="-E16" end="38.00" vehsPerHour="1800"/>
    <flow id="f_3" begin="0.00" departLane="best" departSpeed="max" from="-E14" to="E24" via="E18" end="36.00" vehsPerHour="1800"/>
</routes>
